Circuit: * C:\Users\test\Desktop\PCB_Projects\Necklace\Draft1.asc

Instance "m§q2f": Length shorter than recommended for a level 1 MOSFET.
Instance "m§q2": Length shorter than recommended for a level 1 MOSFET.
Instance "m§q1f": Length shorter than recommended for a level 1 MOSFET.
Instance "m§q1f": Width narrower than recommended for a level 1 MOSFET.
Instance "m§q1": Length shorter than recommended for a level 1 MOSFET.
Instance "m§q1": Width narrower than recommended for a level 1 MOSFET.
Direct Newton iteration for .op point succeeded.

Date: Thu Dec 05 21:46:22 2019
Total elapsed time: 0.108 seconds.

tnom = 27
temp = 27
method = trap
totiter = 19
traniter = 0
tranpoints = 0
accept = 0
rejected = 0
matrix size = 12
fillins = 0
solver = Normal
Matrix Compiler1:      25 opcodes
Matrix Compiler2: 800 bytes object code size
